[TITLE]
Magnetic Island EPANET Water Model v2.0.0
GIS Data by Townsville City Council is licensed under CC BY 4.0
https://data-tsvcitycouncil.opendata.arcgis.com/
"Magnetic Island EPANET Water Model" by Luke Butler is licensed under CC BY 4.0
https://github.com/modelcreate/open-models
Q_VAR_PROJECTION=EPSG:20255

[JUNCTIONS]
;ID              	Elev        	Demand      	Pattern         
 J_00001         	9.02985     	0           	1               	;
 J_00002         	18.4793     	0.001447    	Leakage         	;
 J_00003         	18.8398     	0           	1               	;
 J_00004         	21.6799     	0           	1               	;
 J_00005         	21.9426     	0           	1               	;
 J_00006         	14.2858     	0           	1               	;
 J_00007         	14.2836     	0.004688    	Cust_Pattern_20 	;
 J_00008         	25.0839     	0           	1               	;
 J_00009         	25.3368     	0           	1               	;
 J_00010         	5.00463     	0           	1               	;
 J_00011         	4.93766     	0           	1               	;
 J_00012         	13.0777     	0           	1               	;
 J_00013         	12.885      	0.005937    	Cust_Pattern_18 	;
 J_00014         	4.66177     	0           	1               	;
 J_00015         	18.8201     	0           	1               	;
 J_00016         	25.1511     	0           	1               	;
 J_00017         	15.5926     	0           	1               	;
 J_00018         	15.6079     	0           	1               	;
 J_00019         	3.25226     	0           	1               	;
 J_00020         	3.56687     	0.004074    	Cust_Pattern_17 	;
 J_00021         	5.33956     	0           	1               	;
 J_00022         	5.15435     	0           	1               	;
 J_00023         	9.02075     	0           	1               	;
 J_00024         	10.045      	0.005035    	Cust_Pattern_9  	;
 J_00025         	6.08424     	0.005567    	Cust_Pattern_2  	;
 J_00026         	8.40422     	0.001447    	Leakage         	;
 J_00027         	3.97985     	0.0035069999999999997	Cust_Pattern_7  	;
 J_00028         	4.22689     	0           	1               	;
 J_00029         	20.0776     	0           	1               	;
 J_00030         	17.7853     	0.005937    	Cust_Pattern_23 	;
 J_00031         	17.9166     	0           	1               	;
 J_00032         	15.8559     	0           	1               	;
 J_00033         	15.9162     	0           	1               	;
 J_00034         	25.156      	0           	1               	;
 J_00035         	29.5603     	0           	1               	;
 J_00036         	30.1864     	0           	1               	;
 J_00037         	5.5935      	0           	1               	;
 J_00038         	15.5437     	0           	1               	;
 J_00039         	15.4929     	0.0037040000000000003	Cust_Pattern_11 	;
 J_00040         	10.142      	0           	1               	;
 J_00041         	8.78242     	0           	1               	;
 J_00042         	10.7535     	0.005741    	Cust_Pattern_5  	;
 J_00043         	7.53913     	0           	1               	;
 J_00044         	3.77053     	0           	1               	;
 J_00045         	2.97558     	0.001447    	Leakage         	;
 J_00046         	4.21748     	0           	1               	;
 J_00047         	3.30363     	0           	1               	;
 J_00048         	4.3675      	0           	1               	;
 J_00049         	70.9341     	0           	1               	;
 J_00050         	2.50665     	0.001447    	Leakage         	;
 J_00051         	7.48184     	0.003669    	Cust_Pattern_10 	;
 J_00052         	9.42977     	0           	1               	;
 J_00053         	7.26771     	0.00956     	Cust_Pattern_16 	;
 J_00054         	18.1918     	0           	1               	;
 J_00055         	18.8832     	0           	1               	;
 J_00056         	2.96564     	0           	1               	;
 J_00057         	1.84148     	0.001447    	Leakage         	;
 J_00058         	3.13588     	0           	1               	;
 J_00059         	1.65237     	0           	1               	;
 J_00060         	2.74519     	0.001447    	Leakage         	;
 J_00061         	2.598       	0.0039      	Cust_Pattern_10 	;
 J_00062         	4.64606     	0           	1               	;
 J_00063         	4.65369     	0           	1               	;
 J_00064         	3.95577     	0           	1               	;
 J_00065         	3.93667     	0           	1               	;
 J_00066         	2.92715     	0           	1               	;
 J_00067         	8.88213     	0.005058    	Cust_Pattern_3  	;
 J_00068         	11.5929     	0           	1               	;
 J_00069         	5.73383     	0           	1               	;
 J_00070         	4.84284     	0.001447    	Leakage         	;
 J_00071         	5.83819     	0           	1               	;
 J_00072         	6.2675      	0           	1               	;
 J_00073         	34.2903     	0           	1               	;
 J_00074         	73.207      	0           	1               	;
 J_00075         	9.87611     	0           	1               	;
 J_00076         	9.91737     	0.006238    	Cust_Pattern_17 	;
 J_00077         	9.0026      	0.004722    	Cust_Pattern_3  	;
 J_00078         	6.73262     	0           	1               	;
 J_00079         	6.47584     	0.004711    	Cust_Pattern_10 	;
 J_00080         	3.92244     	0.004144    	Cust_Pattern_11 	;
 J_00081         	3.93077     	0           	1               	;
 J_00082         	3.67218     	0           	1               	;
 J_00083         	3.9342      	0           	1               	;
 J_00084         	7.62894     	0.005856    	Cust_Pattern_4  	;
 J_00085         	8.30115     	0           	1               	;
 J_00086         	4.97652     	0           	1               	;
 J_00087         	7.74571     	0.001447    	Leakage         	;
 J_00088         	4.6882      	0           	1               	;
 J_00089         	9.8426      	0           	1               	;
 J_00090         	6.87856     	0.004653    	Cust_Pattern_7  	;
 J_00091         	15.3074     	0           	1               	;
 J_00092         	15.1265     	0           	1               	;
 J_00093         	8.58972     	0.005266    	Cust_Pattern_21 	;
 J_00094         	9.53918     	0.001447    	Leakage         	;
 J_00095         	14.2774     	0           	1               	;
 J_00096         	15.9424     	0.001447    	Leakage         	;
 J_00097         	7.92302     	0.0035069999999999997	Cust_Pattern_10 	;
 J_00098         	8.13669     	0.006887    	Cust_Pattern_4  	;
 J_00099         	4.31184     	0           	1               	;
 J_00100         	4.58003     	0           	1               	;
 J_00101         	4.50214     	0           	1               	;
 J_00102         	25.7199     	0           	1               	;
 J_00103         	14.1754     	0           	1               	;
 J_00104         	12.2368     	0.0038769999999999994	Cust_Pattern_21 	;
 J_00105         	20.683      	0.00478     	Cust_Pattern_3  	;
 J_00106         	19.498      	0.0037850000000000006	Cust_Pattern_18 	;
 J_00107         	70.7356     	0           	1               	;
 J_00108         	70.558      	0           	1               	;
 J_00109         	6.52037     	0.005347    	Cust_Pattern_7  	;
 J_00110         	6.06092     	0           	1               	;
 J_00111         	11.2545     	0.004954    	Cust_Pattern_15 	;
 J_00112         	11.7547     	0           	1               	;
 J_00113         	6.13008     	0           	1               	;
 J_00114         	2.8486      	0.004236    	Cust_Pattern_19 	;
 J_00115         	8.3069      	0.003924    	Cust_Pattern_8  	;
 J_00116         	6.60841     	0.001447    	Leakage         	;
 J_00117         	11.4187     	0.004745    	Cust_Pattern_3  	;
 J_00118         	5.63811     	0.001447    	Leakage         	;
 J_00119         	6.11004     	0           	1               	;
 J_00120         	6.97439     	0.005058    	Cust_Pattern_13 	;
 J_00121         	9.56407     	0           	1               	;
 J_00122         	7.77329     	0           	1               	;
 J_00123         	3.26303     	0           	1               	;
 J_00124         	3.29766     	0           	1               	;
 J_00125         	4.48735     	0.00691     	Cust_Pattern_19 	;
 J_00126         	10.2506     	0.002894    	Leakage         	;
 J_00127         	1.44546     	0           	1               	;
 J_00128         	4.8586      	0           	1               	;
 J_00129         	3.87281     	0           	1               	;
 J_00130         	4.28144     	0.002894    	Leakage         	;
 J_00131         	23.82       	0           	1               	;
 J_00132         	2.29257     	0.001447    	Leakage         	;
 J_00133         	1.35465     	0           	1               	;
 J_00134         	5.81433     	0           	1               	;
 J_00135         	10.9494     	0           	1               	;
 J_00136         	3.30023     	0.005822    	Cust_Pattern_17 	;
 J_00137         	3.16248     	0           	1               	;
 J_00138         	1.48188     	0           	1               	;
 J_00139         	1.82822     	0           	1               	;
 J_00140         	3.09676     	0           	1               	;
 J_00141         	7.82011     	0           	1               	;
 J_00142         	2.30794     	0           	1               	;
 J_00143         	9.82607     	0           	1               	;
 J_00144         	14.4405     	0.006921000000000001	Cust_Pattern_4  	;
 J_00145         	12.6461     	0           	1               	;
 J_00146         	12.998      	0           	1               	;
 J_00147         	3.00157     	0.00456     	Cust_Pattern_8  	;
 J_00148         	8.74142     	0.006424    	Cust_Pattern_10 	;
 J_00149         	13.2512     	0           	1               	;
 J_00150         	14.9043     	0.0038539999999999994	Cust_Pattern_14 	;
 J_00151         	15.1578     	0           	1               	;
 J_00152         	19.9563     	0.005833    	Cust_Pattern_9  	;
 J_00153         	21.7576     	0.003912    	Cust_Pattern_4  	;
 J_00154         	3.33283     	0           	1               	;
 J_00155         	4.20709     	0           	1               	;
 J_00156         	16.4625     	0           	1               	;
 J_00157         	10.9203     	0.005937    	Cust_Pattern_16 	;
 J_00158         	17.0351     	0           	1               	;
 J_00159         	6.61611     	0           	1               	;
 J_00160         	10.7265     	0           	1               	;
 J_00161         	23.1769     	0           	1               	;
 J_00162         	22.1206     	0           	1               	;
 J_00163         	3.20822     	0           	1               	;
 J_00164         	4.02313     	0           	1               	;
 J_00165         	24.178      	0           	1               	;
 J_00166         	24.5785     	0           	1               	;
 J_00167         	7.30631     	0           	1               	;
 J_00168         	7.50033     	0.001447    	Leakage         	;
 J_00169         	8.09234     	0           	1               	;
 J_00170         	7.58086     	0           	1               	;
 J_00171         	21.46       	0           	1               	;
 J_00172         	23.9394     	0           	1               	;
 J_00173         	8.60239     	0           	1               	;
 J_00174         	7.3965      	0.006296    	Cust_Pattern_2  	;
 J_00175         	18.0657     	0           	1               	;
 J_00176         	11.5332     	0           	1               	;
 J_00177         	10.6067     	0           	1               	;
 J_00178         	3.49293     	0           	1               	;
 J_00179         	4.05616     	0           	1               	;
 J_00180         	5.20761     	0           	1               	;
 J_00181         	5.28226     	0.001447    	Leakage         	;
 J_00182         	6.57336     	0           	1               	;
 J_00183         	6.3797      	0           	1               	;
 J_00184         	6.17887     	0.004479    	Cust_Pattern_1  	;
 J_00185         	2.92171     	0           	1               	;
 J_00186         	7.59569     	0.005995    	Cust_Pattern_12 	;
 J_00187         	10.7016     	0           	1               	;
 J_00188         	6.36609     	0           	1               	;
 J_00189         	12.617      	0           	1               	;
 J_00190         	17.7605     	0           	1               	;
 J_00191         	10.5276     	0           	1               	;
 J_00192         	12.7371     	0.006343    	Cust_Pattern_6  	;
 J_00193         	3.91541     	0.011076    	Cust_Pattern_4  	;
 J_00194         	7.13961     	0           	1               	;
 J_00195         	7.02332     	0           	1               	;
 J_00196         	9.44875     	0           	1               	;
 J_00197         	20.2931     	0           	1               	;
 J_00198         	22.5416     	0.001447    	Leakage         	;
 J_00199         	18.5377     	0           	1               	;
 J_00200         	18.6331     	0.001447    	Leakage         	;
 J_00201         	9.18943     	0           	1               	;
 J_00202         	5.22662     	0.004086    	Cust_Pattern_2  	;
 J_00203         	7.86928     	0           	1               	;
 J_00204         	7.49608     	0.001447    	Leakage         	;
 J_00205         	22.8531     	0.006574    	Cust_Pattern_3  	;
 J_00206         	12.4402     	0           	1               	;
 J_00207         	8.94706     	0           	1               	;
 J_00208         	11.5084     	0.003912    	Cust_Pattern_1  	;
 J_00209         	4.26025     	0           	1               	;
 J_00210         	3.93136     	0           	1               	;
 J_00211         	5.72879     	0.005451    	Cust_Pattern_3  	;
 J_00212         	5.4429      	0           	1               	;
 J_00213         	5.3208      	0           	1               	;
 J_00214         	5.69952     	0           	1               	;
 J_00215         	14.3015     	0           	1               	;
 J_00216         	14.0828     	0           	1               	;
 J_00217         	5.229       	0.004688    	Cust_Pattern_22 	;
 J_00218         	5.42652     	0           	1               	;
 J_00219         	14.0886     	0           	1               	;
 J_00220         	13.6473     	0           	1               	;
 J_00221         	5.03861     	0           	1               	;
 J_00222         	12.0392     	0           	1               	;
 J_00223         	14.2169     	0           	1               	;
 J_00224         	5.01867     	0           	1               	;
 J_00225         	22.6567     	0           	1               	;
 J_00226         	11.3635     	0           	1               	;
 J_00227         	11.4781     	0           	1               	;
 J_00228         	10.0629     	0           	1               	;
 J_00229         	21.261      	0           	1               	;
 J_00230         	26.6345     	0.005833    	Cust_Pattern_19 	;
 J_00231         	8.23514     	0.005637    	Cust_Pattern_11 	;
 J_00232         	10.436      	0           	1               	;
 J_00233         	8.34337     	0.005162    	Cust_Pattern_16 	;
 J_00234         	16.1624     	0           	1               	;
 J_00235         	29.8664     	0           	1               	;
 J_00236         	6.64682     	0.006424    	Cust_Pattern_11 	;
 J_00237         	116.785     	0           	1               	;
 J_00238         	13.8612     	0.004201    	Cust_Pattern_15 	;
 J_00239         	115.238     	0           	1               	;
 J_00240         	16.7967     	0           	1               	;
 J_00241         	16.0391     	0           	1               	;
 J_00242         	13.4516     	0           	1               	;
 J_00243         	3.51497     	0.006887    	Cust_Pattern_2  	;
 J_00244         	10.95       	0           	1               	;
 J_00245         	8.85155     	0.004618    	Cust_Pattern_11 	;
 J_00246         	7.07399     	0           	1               	;
 J_00247         	9.40792     	0.003519    	Cust_Pattern_12 	;
 J_00248         	14.9387     	0           	1               	;
 J_00249         	12.7207     	0           	1               	;
 J_00250         	25.2867     	0           	1               	;
 J_00251         	16.8712     	0           	1               	;
 J_00252         	12.8297     	0           	1               	;
 J_00253         	16.419      	0           	1               	;
 J_00254         	24.3259     	0           	1               	;
 J_00255         	19.2138     	0           	1               	;
 J_00256         	13.8849     	0           	1               	;
 J_00257         	21.8792     	0           	1               	;
 J_00258         	19.5601     	0           	1               	;
 J_00259         	17.7767     	0           	1               	;
 J_00260         	16.3807     	0           	1               	;
 J_00261         	16.6569     	0           	1               	;
 J_00262         	22.3347     	0           	1               	;
 J_00263         	4.22448     	0.004965    	Cust_Pattern_7  	;
 J_00264         	18.0914     	0.006076    	Cust_Pattern_20 	;
 J_00265         	16.4195     	0           	1               	;
 J_00266         	70.9971     	0           	1               	;
 J_00267         	70.8956     	0           	1               	;
 J_00268         	19.4268     	0           	1               	;
 J_00269         	2.54358     	0           	1               	;
 J_00270         	2.00286     	0           	1               	;
 J_00271         	20.2565     	0.001447    	Leakage         	;
 J_00272         	2.71124     	0           	1               	;
 J_00273         	15.9108     	0.0038890000000000005	Cust_Pattern_7  	;
 J_00274         	16.3411     	0           	1               	;
 J_00275         	70.8336     	0           	1               	;
 J_00276         	71.1423     	0           	1               	;
 J_00277         	16.4441     	0.006944    	Cust_Pattern_7  	;
 J_00278         	3.50248     	0           	1               	;
 J_00279         	16.7039     	0           	1               	;
 J_00280         	12.9968     	0           	1               	;
 J_00281         	13.7515     	0           	1               	;
 J_00282         	2.36747     	0           	1               	;
 J_00283         	2.97773     	0           	1               	;
 J_00284         	15.717      	0.001447    	Leakage         	;
 J_00285         	14.2512     	0.001447    	Leakage         	;
 J_00286         	63.1235     	0           	1               	;
 J_00287         	5.27717     	0           	1               	;
 J_00288         	5.20657     	0.005694    	Cust_Pattern_23 	;
 J_00289         	5.00097     	0.005139    	Cust_Pattern_4  	;
 J_00290         	5.3449      	0           	1               	;
 J_00291         	13.1565     	0           	1               	;
 J_00292         	15.2097     	0.005567    	Cust_Pattern_5  	;
 J_00293         	14.4185     	0           	1               	;
 J_00294         	13.973      	0           	1               	;
 J_00295         	9.3504      	0           	1               	;
 J_00296         	13.5341     	0.0037850000000000006	Cust_Pattern_9  	;
 J_00297         	14.5477     	0           	1               	;
 J_00298         	8.9192      	0           	1               	;
 J_00299         	4.23225     	0           	1               	;
 J_00300         	3.4284      	0           	1               	;
 J_00301         	10.0891     	0           	1               	;
 J_00302         	21.2015     	0.001447    	Leakage         	;
 J_00303         	4.02204     	0.005694    	Cust_Pattern_2  	;
 J_00304         	4.0697      	0           	1               	;
 J_00305         	4.40595     	0           	1               	;
 J_00306         	3.08241     	0.003866    	Cust_Pattern_15 	;
 J_00307         	5.80023     	0           	1               	;
 J_00308         	3.01725     	0           	1               	;
 J_00309         	17.9747     	0           	1               	;
 J_00310         	15.0539     	0.001447    	Leakage         	;
 J_00311         	8.60823     	0.001447    	Leakage         	;
 J_00312         	8.86819     	0.005035    	Cust_Pattern_3  	;
 J_00313         	4.4267      	0           	1               	;
 J_00314         	2.78121     	0           	1               	;
 J_00315         	2.27806     	0           	1               	;
 J_00316         	4.20701     	0.004688    	Cust_Pattern_17 	;
 J_00317         	8.80581     	0           	1               	;
 J_00318         	22.1997     	0.005359    	Cust_Pattern_1  	;
 J_00319         	23.6038     	0.004549    	Cust_Pattern_13 	;
 J_00320         	33.6989     	0           	1               	;
 J_00321         	29.9758     	0           	1               	;
 J_00322         	30.9066     	0           	1               	;
 J_00323         	70.8007     	0           	1               	;
 J_00324         	79.21       	0           	1               	;
 J_00325         	77.5153     	0           	1               	;
 J_00326         	77.1994     	0           	1               	;
 J_00327         	64.6725     	0           	1               	;
 J_00328         	64.8578     	0           	1               	;
 J_00329         	9.05432     	0           	1               	;
 J_00330         	22.8183     	0           	1               	;
 J_00331         	64.7029     	0           	1               	;
 J_00332         	9.57981     	0.008206    	Cust_Pattern_3  	;
 J_00334         	18.5886     	0           	1               	;
 J_00335         	7.8364      	0           	1               	;
 J_00336         	21.3837     	0           	1               	;
 J_00337         	21.8327     	0.004294    	Cust_Pattern_7  	;
 J_00338         	21.6222     	0           	1               	;
 J_00339         	5.40517     	0.005509    	Cust_Pattern_17 	;
 J_00340         	7.9371      	0.004167    	Cust_Pattern_5  	;
 J_00341         	3.22778     	0           	1               	;
 J_00342         	5.12393     	0           	1               	;
 J_00343         	16.0835     	0           	1               	;
 J_00344         	10.5372     	0.004329    	Cust_Pattern_5  	;
 J_00345         	7.45819     	0           	1               	;
 J_00346         	16.0475     	0           	1               	;
 J_00347         	4.70865     	0           	1               	;
 J_00348         	7.15329     	0           	1               	;
 J_00349         	5.3559      	0.00397     	Cust_Pattern_13 	;
 J_00350         	13.2601     	0.006921000000000001	Cust_Pattern_1  	;
 J_00351         	14.2173     	0.004988    	Cust_Pattern_11 	;
 J_00352         	23.1758     	0.005324    	Cust_Pattern_5  	;
 J_00353         	25.7464     	0           	1               	;
 J_00354         	13.5596     	0.00434     	Leakage         	;
 J_00355         	5.76925     	0.00691     	Cust_Pattern_23 	;
 J_00356         	9.84791     	0           	1               	;
 J_00357         	4.12464     	0           	1               	;
 J_00358         	3.85087     	0           	1               	;
 J_00359         	4.32803     	0.005845    	Cust_Pattern_13 	;
 J_00360         	8.06644     	0           	1               	;
 J_00361         	8.49722     	0           	1               	;
 J_00362         	10.4208     	0           	1               	;
 J_00363         	8.95351     	0.006748    	Cust_Pattern_1  	;
 J_00364         	17.4813     	0           	1               	;
 J_00365         	16.452      	0           	1               	;
 J_00366         	10.5758     	0           	1               	;
 J_00367         	60.8492     	0           	1               	;
 J_00368         	10.4324     	0           	1               	;
 J_00369         	10.9178     	0.005266    	Cust_Pattern_7  	;
 J_00370         	64.5401     	0           	1               	;
 J_00371         	6.21313     	0           	1               	;
 J_00372         	4.89625     	0           	1               	;
 J_00373         	5.3171      	0           	1               	;
 J_00374         	12.3217     	0.003472    	Cust_Pattern_8  	;
 J_00375         	12.6979     	0.005648    	Cust_Pattern_16 	;
 J_00376         	4.29246     	0           	1               	;
 J_00377         	4.0041      	0           	1               	;
 J_00378         	33.7808     	0           	1               	;
 J_00379         	73.8765     	0           	1               	;
 J_00380         	3.83761     	0           	1               	;
 J_00381         	15.3337     	0.006701    	Cust_Pattern_11 	;
 J_00382         	14.2242     	0.005833    	Cust_Pattern_3  	;
 J_00383         	5.43315     	0           	1               	;
 J_00384         	5.66758     	0           	1               	;
 J_00385         	2.69207     	0.005093    	Cust_Pattern_11 	;
 J_00386         	2.13722     	0           	1               	;
 J_00387         	2.13389     	0           	1               	;
 J_00388         	3.11275     	0           	1               	;
 J_00389         	4.40403     	0.005694    	Cust_Pattern_22 	;
 J_00390         	8.5178      	0.004988    	Cust_Pattern_23 	;
 J_00391         	12.2426     	0.00515     	Cust_Pattern_10 	;
 J_00392         	17.1779     	0.001447    	Leakage         	;
 J_00393         	5.02104     	0.00625     	Cust_Pattern_14 	;
 J_00394         	18.6838     	0.005208    	Cust_Pattern_12 	;
 J_00395         	12.4219     	0           	1               	;
 J_00396         	12.9496     	0           	1               	;
 J_00397         	12.3449     	0           	1               	;
 J_00398         	64.5595     	0           	1               	;
 J_00399         	64.2641     	0           	1               	;
 J_00400         	4.25151     	0.00419     	Cust_Pattern_6  	;
 J_00401         	2.55542     	0.002894    	Leakage         	;
 J_00402         	3.88086     	0.004641    	Cust_Pattern_6  	;
 J_00403         	3.61668     	0           	1               	;
 J_00404         	2.81082     	0.004745    	Cust_Pattern_21 	;
 J_00405         	12.902      	0.006215    	Cust_Pattern_12 	;
 J_00406         	12.9811     	0           	1               	;
 J_00407         	2.30183     	0           	1               	;
 J_00408         	10.4672     	0           	1               	;
 J_00409         	2.8296      	0           	1               	;
 J_00410         	19.6604     	0.002894    	Leakage         	;
 J_00411         	23.0259     	0           	1               	;
 J_00412         	14.447      	0.004375    	Cust_Pattern_15 	;
 J_00413         	12.1142     	0           	1               	;
 J_00414         	18.8198     	0           	1               	;
 J_00415         	16.9114     	0           	1               	;
 J_00416         	4.66001     	0           	1               	;
 J_00417         	6.69072     	0.002894    	Leakage         	;
 J_00418         	3.92764     	0.00662     	Cust_Pattern_4  	;
 J_00419         	1.24855     	0           	1               	;
 J_00420         	2.46697     	0.00603     	Cust_Pattern_7  	;
 J_00421         	10.4868     	0           	1               	;
 J_00422         	17.757      	0           	1               	;
 J_00423         	4.98459     	0           	1               	;
 J_00424         	8.76724     	0.005926    	Cust_Pattern_8  	;
 J_00425         	5.29579     	0           	1               	;
 J_00426         	5.38145     	0.001447    	Leakage         	;
 J_00427         	-0.569245   	0           	1               	;
 J_00428         	22.1347     	0.003993    	Cust_Pattern_9  	;
 J_00429         	6.84612     	0           	1               	;
 J_00430         	15.0126     	0.001447    	Leakage         	;
 J_00431         	8.43736     	0.001447    	Leakage         	;
 J_00432         	3.37768     	0           	1               	;
 J_00433         	23.9686     	0           	1               	;
 J_00434         	13.6111     	0.005718    	Cust_Pattern_7  	;
 J_00435         	14.3931     	0.004433    	Cust_Pattern_13 	;
 J_00436         	4.46872     	0           	1               	;
 J_00437         	3.99405     	0           	1               	;
 J_00438         	12.9414     	0.002894    	Leakage         	;
 J_00439         	6.02797     	0           	1               	;
 J_00440         	5.96781     	0           	1               	;
 J_00441         	10.5037     	0           	1               	;
 J_00442         	5.0185      	0.005324    	Cust_Pattern_17 	;
 J_00443         	8.31523     	0.006412    	Cust_Pattern_15 	;
 J_00444         	16.5134     	0.002894    	Leakage         	;
 J_00445         	14.7099     	0           	1               	;
 J_00446         	3.91136     	0           	1               	;
 J_00447         	0.806317    	0           	1               	;
 J_00448         	4.12912     	0.001447    	Leakage         	;
 J_00449         	4.41189     	0           	1               	;
 J_00450         	3.63772     	0.001447    	Leakage         	;
 J_00451         	4.28002     	0           	1               	;
 J_00452         	3.71561     	0           	1               	;
 J_00453         	18.0483     	0           	1               	;
 J_00454         	19.7855     	0           	1               	;
 J_00455         	19.7632     	0           	1               	;
 J_00456         	30.2201     	0.003576    	Cust_Pattern_16 	;
 J_00457         	30.2038     	0.004641    	Cust_Pattern_16 	;
 J_00458         	21.7636     	0           	1               	;
 J_00459         	21.7697     	0.006319    	Cust_Pattern_20 	;
 J_00460         	16.4567     	0           	1               	;
 J_00461         	16.4392     	0           	1               	;
 J_00462         	21.815      	0.003692    	Cust_Pattern_4  	;